CRYSTAL
PRIMVEC
     5.8550023770    0.0000000000    0.0000000000
     0.0000000000    5.8550023770    0.0000000000
     0.0000000000    0.0000000000    7.8461598754
 PRIMCOORD
20 1
  Cu       2.9275011885     0.0000000000     0.0000000000       0.0000000000     0.0000000000     0.0000000000
  Cu       0.0000000000     2.9275011885     0.0000000000       0.0000000000     0.0000000000     0.0000000000
  Cu       2.9275011885     0.0000000000     3.9230787667       0.0000000000     0.0000000000     0.0000000000
  Cu       0.0000000000     2.9275011885     3.9230787667       0.0000000000     0.0000000000     0.0000000000
    K       0.0000000000     0.0000000000     1.9615393834       0.0000000000     0.0000000000     0.0000000000
    K       0.0000000000     0.0000000000    -1.9615393834       0.0000000000     0.0000000000     0.0000000000
    K       2.9275011885     2.9275011885     1.9615393834       0.0000000000     0.0000000000     0.0000000000
    K       2.9275011885     2.9275011885    -1.9615393834       0.0000000000     0.0000000000     0.0000000000
    F       2.9275011885     0.0000000000     1.9615393834       0.0000000000     0.0000000000     0.0000000000
    F       2.9275011885     0.0000000000    -1.9615393834       0.0000000000     0.0000000000     0.0000000000
    F       1.5923849965     1.3351161920     0.0000000000       0.0000000000     0.0000000000     0.0000000000
    F      -1.5923849965    -1.3351161920     0.0000000000       0.0000000000     0.0000000000     0.0000000000
    F       1.5923849965    -1.3351161920     3.9230787667       0.0000000000     0.0000000000     0.0000000000
    F      -1.5923849965     1.3351161920     3.9230787667       0.0000000000     0.0000000000     0.0000000000
    F       0.0000000000     2.9275011885     1.9615393834       0.0000000000     0.0000000000     0.0000000000
    F       0.0000000000     2.9275011885    -1.9615393834       0.0000000000     0.0000000000     0.0000000000
    F       1.3351161920    -1.5923849965     0.0000000000       0.0000000000     0.0000000000     0.0000000000
    F      -1.3351161920     1.5923849965     0.0000000000       0.0000000000     0.0000000000     0.0000000000
    F       1.3351161920     1.5923849965     3.9230787667       0.0000000000     0.0000000000     0.0000000000
    F      -1.3351161920    -1.5923849965     3.9230787667       0.0000000000     0.0000000000     0.0000000000
